Circuit: * C:\Users\aites\Documents\LTspiceXVII\Draft4.asc

Direct Newton iteration for .op point succeeded.

Date: Sun Dec 18 19:21:10 2022
Total elapsed time: 0.110 seconds.

tnom = 27
temp = 27
method = modified trap
totiter = 2149
traniter = 2138
tranpoints = 1070
accept = 1065
rejected = 5
matrix size = 5
fillins = 0
solver = Normal
Matrix Compiler1:      10 opcodes  0.0/[0.0]/0.0
Matrix Compiler2: off  [0.0]/0.0/0.0

