Circuit: * C:\Users\aites\Documents\Github\Metastability-Simulation\Metstability_Playaround\Metastability_d_Latch_success.asc

V2: Removing PWL point (4.5e-010,1)
Direct Newton iteration for .op point succeeded.

Date: Sun Dec 25 02:18:31 2022
Total elapsed time: 2.752 seconds.

tnom = 27
temp = 27
method = modified trap
totiter = 40241
traniter = 40214
tranpoints = 20105
accept = 20096
rejected = 9
matrix size = 42
fillins = 9
solver = Normal
Matrix Compiler1: 6.34 KB object code size  2.0/1.3/[0.5]
Matrix Compiler2: 5.34 KB object code size  1.0/1.1/[0.6]

