Circuit: * C:\Users\aites\Documents\LTspiceXVII\Metastability_d_Latch_success.asc

V2: Removing PWL point (4.5e-010,1)
Direct Newton iteration for .op point succeeded.
Heightened Def Con from 6.01e-009 to 6.01e-009

Date: Wed Dec 21 21:31:06 2022
Total elapsed time: 1.604 seconds.

tnom = 27
temp = 27
method = modified trap
totiter = 20244
traniter = 20217
tranpoints = 10087
accept = 10078
rejected = 10
matrix size = 42
fillins = 9
solver = Normal
Matrix Compiler1: 6.34 KB object code size  4.3/2.6/[1.3]
Matrix Compiler2: 5.34 KB object code size  2.0/2.7/[1.5]

