Circuit: * C:\Users\aites\Documents\Github\Metastability-Simulation\Metstability_Playaround\Metastability_d_Latch_success.asc

V2: Removing PWL point (4.5e-010,1)
Direct Newton iteration for .op point succeeded.
Heightened Def Con from 6.01e-009 to 6.01e-009

Date: Wed Dec 21 22:22:27 2022
Total elapsed time: 1.426 seconds.

tnom = 27
temp = 27
method = modified trap
totiter = 20244
traniter = 20217
tranpoints = 10087
accept = 10078
rejected = 10
matrix size = 42
fillins = 9
solver = Normal
Matrix Compiler1: 6.34 KB object code size  1.4/1.2/[0.5]
Matrix Compiler2: 5.34 KB object code size  0.6/1.1/[0.5]

